Questionable use of curly braces in "simulator lang={spectre} insensitive={yes}"
    Error: undefined symbol in: "[spectre]"
Questionable use of curly braces in "simulator lang=(spectre) insensitive={yes}"
    Error: undefined symbol in: "[yes]"
Questionable use of curly braces in "// model name {cmosn}"
    Error: undefined symbol in: "[cmosn]"
Questionable use of curly braces in "// model name {cmosp}"
    Error: undefined symbol in: "[cmosp]"
Questionable use of curly braces in ".meas t_pd_avg param={(t_rise+t_fall)/2}"
    Error: undefined symbol in: "([t_rise]+t_fall)/2"
LTspice 24.0.12 for Windows
Circuit: * D:\LTSpiceCMOSDCID\logics\dep.asc
Start Time: Wed Feb 26 16:52:18 2025
Ignoring BSIM parameter XL
Ignoring BSIM parameter XW
Ignoring BSIM parameter LDIF
Ignoring BSIM parameter HDIF
Ignoring BSIM parameter CTP
Ignoring BSIM parameter PTP
Ignoring BSIM parameter CTA
Ignoring BSIM parameter PTA
Ignoring BSIM parameter TLEVC
Ignoring BSIM parameter XL
Ignoring BSIM parameter XW
Ignoring BSIM parameter LDIF
Ignoring BSIM parameter HDIF
Ignoring BSIM parameter CTP
Ignoring BSIM parameter PTP
Ignoring BSIM parameter CTA
Ignoring BSIM parameter PTA
Ignoring BSIM parameter TLEVC
solver = Normal
Maximum thread count: 16
tnom = 27
temp = 27
method = modified trap
WARNING: Node N004 is floating.
WARNING: Node N002 is floating.

WARNING: Less than two connections to node n004.  This node is used by m5.
WARNING: Less than two connections to node n002.  This node is used by m2.
Warning: LTspice supports BSIM3 version 3.3.0. Your model specified an unrecognized version: 3.1000e+00
Warning: LTspice supports BSIM3 version 3.3.0. Your model specified an unrecognized version: 3.1000e+00
Warning: Pd = 0 is less than W.
Warning: Ps = 0 is less than W.
Direct Newton iteration for .op point succeeded.
Heightened Def Con from 2e-08 +++++++++++++++to 2e-08
Heightened Def Con from 2e-08 to 2.0002e-08
Heightened Def Con from 3e-08 ++++++++++++++to 3e-08
Heightened Def Con from 3e-08 +++++++++++to 3e-08
Heightened Def Con from 3e-08 +++++to 3e-08
Heightened Def Con from 3e-08 to 3.00002e-08
Heightened Def Con from 4e-08 +++++++++to 4e-08
Heightened Def Con from 4e-08 ++++++++to 4e-08
Heightened Def Con from 4e-08 to 4.00002e-08


Measurement "vol" FAIL'ed

Measurement "vih" FAIL'ed

Measurement "voh" FAIL'ed

Measurement "vil" FAIL'ed

Measurement "nml" FAIL'ed
imax: MAX(id(m2))=0.00017041 FROM 0 TO 4.1e-08

Measurement "t_rise" FAIL'ed

Measurement "t_fall" FAIL'ed

Measurement "t_pd_avg" FAIL'ed

Total elapsed time: 1.348 seconds.

