LTspice 24.0.12 for Windows
Circuit: * D:\LTSpiceCMOSDCID\logics\mSRAM.asc
Start Time: Wed Apr  2 11:12:47 2025
solver = Normal
Maximum thread count: 16
tnom = 27
temp = 27
method = modified trap
Direct Newton iteration for .op point succeeded.
Heightened Def Con from 1.00001e-06 to 1.00001e-06
Heightened Def Con from 6.00002e-06 to 6.00002e-06
Heightened Def Con from 7e-06 to 7e-06
Heightened Def Con from 1e-05 to 1e-05
Heightened Def Con from 1.1e-05 to 1.1e-05
Heightened Def Con from 1.4e-05 to 1.4e-05
Heightened Def Con from 1.5e-05 to 1.5e-05
Heightened Def Con from 1.8e-05 to 1.8e-05
Heightened Def Con from 1.9e-05 to 1.9e-05
Total elapsed time: 0.702 seconds.

