LTspice 24.0.12 for Windows
Circuit: * D:\LTSpiceCMOSDCID\180_switching.asc
Start Time: Wed Jan  1 16:13:15 2025
Ignoring BSIM parameter XL
Ignoring BSIM parameter XW
Ignoring BSIM parameter XL
Ignoring BSIM parameter XW
Error on line 2 : v1 n003 0 v
	 Unknown parameter "v"
solver = Normal
Maximum thread count: 16
tnom = 27
temp = 27
method = modified trap
WARNING: Node N002 is floating.

WARNING: Less than two connections to node n002.  This node is used by m2.
Warning: Pd = 0 is less than W.
Warning: Ps = 0 is less than W.
Warning: Pd = 0 is less than W.
Warning: Ps = 0 is less than W.
v1: Missing value, assumed 0V @ DC
Total elapsed time: 0.205 seconds.

