LTspice 24.0.12 for Windows
Circuit: * D:\LTSpiceCMOSDCID\180n_IDVG.asc
Start Time: Wed Jan  1 14:39:36 2025
solver = Normal
Maximum thread count: 16
tnom = 27
temp = 27
method = modified trap
Instance "m1": Length shorter than recommended for a level 1 MOSFET.
Instance "m1": Width narrower than recommended for a level 1 MOSFET.
.step vd=0.05
.step vd=1.8
Total elapsed time: 0.235 seconds.

