LTspice 24.0.12 for Windows
Circuit: * D:\LTSpiceCMOSDCID\180p_IDVD.asc
Start Time: Wed Jan  1 14:39:49 2025
solver = Normal
Maximum thread count: 16
tnom = 27
temp = 27
method = modified trap
Instance "m1": Length shorter than recommended for a level 1 MOSFET.
Instance "m1": Width narrower than recommended for a level 1 MOSFET.
vg: Missing value, assumed 0V @ DC
vd: Missing value, assumed 0V @ DC
.step vg=-0.01
.step vg=-0.61
.step vg=-1.21
.step vg=-1.8
Total elapsed time: 0.254 seconds.

