Questionable use of curly braces in "simulator lang={spectre} insensitive={yes}"
    Error: undefined symbol in: "[spectre]"
Questionable use of curly braces in "simulator lang=(spectre) insensitive={yes}"
    Error: undefined symbol in: "[yes]"
Questionable use of curly braces in "// model name {cmosn}"
    Error: undefined symbol in: "[cmosn]"
Questionable use of curly braces in "// model name {cmosp}"
    Error: undefined symbol in: "[cmosp]"
LTspice 24.0.12 for Windows
Circuit: * D:\LTSpiceCMOSDCID\250n_IDVD.asc
Start Time: Wed Jan  1 14:50:54 2025
solver = Normal
Maximum thread count: 16
tnom = 27
temp = 27
method = modified trap
Instance "m1": Length shorter than recommended for a level 1 MOSFET.
Instance "m1": Width narrower than recommended for a level 1 MOSFET.
.step vg=0.05
.step vg=0.35
.step vg=0.65
.step vg=0.95
.step vg=1.25
.step vg=1.55
.step vg=1.85
.step vg=2.15
.step vg=2.45
.step vg=2.5
Total elapsed time: 0.265 seconds.

