LTspice 24.0.12 for Windows
Circuit: * D:\LTSpiceCMOSDCID\45n_nor_gate.asc
Start Time: Wed Jan 29 16:52:04 2025
solver = Normal
Maximum thread count: 16
tnom = 27
temp = 27
method = modified trap
Direct Newton iteration for .op point succeeded.
