LTspice 24.0.12 for Windows
Circuit: * D:\LTSpiceCMOSDCID\45n_IDVD.asc
Start Time: Wed Jan  1 14:49:05 2025
solver = Normal
Maximum thread count: 16
tnom = 27
temp = 27
method = modified trap
.step vg=0.2
.step vg=0.4
.step vg=0.6
.step vg=0.8
.step vg=1
Total elapsed time: 0.692 seconds.

