LTspice 24.0.12 for Windows
Circuit: * D:\LTSpiceCMOSDCID\45p_IDVG.asc
Start Time: Wed Jan  1 14:49:48 2025
solver = Normal
Maximum thread count: 16
tnom = 27
temp = 27
method = modified trap
.step vd=0.05
.step vd=1
Total elapsed time: 0.201 seconds.

