LTspice 24.0.12 for Windows
Circuit: * D:\LTSpiceCMOSDCID\diffw45_switching.asc
Start Time: Wed Jan  8 14:52:28 2025
Error on line 2 : v1 n003 0 v
	 Unknown parameter "v"
solver = Normal
Maximum thread count: 16
tnom = 27
temp = 27
method = modified trap
WARNING: Node N002 is floating.

WARNING: Less than two connections to node n002.  This node is used by m2.
v1: Missing value, assumed 0V @ DC
Total elapsed time: 0.064 seconds.

